http://www.yso.fi/onto/yso/p11875 corticosteroids
corticosteroids
Coagulation and inflammation in very low birth weight infants
Principles of corticosteroid therapy
Allergy to topical corticosteroids
Abstract. - Abstract in Finnish.
Genome-wide regulation of glucocorticoid signaling by SUMO modifications
Steroid analysis
Summary: Inhaled glucocorticoids and the skin.
Corticosteroid treatment in the perinatal period : efficacy and safety of antenatal and neonatal corticosteroids in the prevention of acute and long-term morbidity and mortality in preterm infants
Studies on canine lower respiratory tract with special reference to inhaled corticosteroids
Effects of perinatal corticosteroid treatment on sympatho-adrenal activity and on the hypothalamo-pituitary-adrenal axis
Contact allergy to corticosteroids
