http://www.yso.fi/onto/yso/p23272 tacrolimus
tacrolimus FK-506 (drug)
Genome-wide regulation of glucocorticoid signaling by SUMO modifications
Pathomechanisms of Atopic Dermatitis : Special Emphasis on Superantigen, Topical Treatment and Interleukin-33 receptor
Tacrolimus ointment for long-term treatment of atopic dermatitis
Oral lichen planus – etiopathogenesis and management
Androgen receptor-mediated gene activation in prostate cancer cells
Oral lichen planus - etiopathogenesis and management
Topical tacrolimus in atopic dermatitis : effects of long-term treatment on skin and respiratory symptoms
