http://www.yso.fi/onto/yso/p23364 joining (entry)
joining (entry) accession
The politics of EU accession : Turkish challenges and Central European experiences
Molecular interactions of neuronal ceroid lipofuscinosis protein CLN3
Alcohol-related traumatic brain injuries before and after the reduction of alcohol prices : observations from Oulu Province and Northern Ostrobothnia
Status report on alcohol and health in 35 European countries 2013.
Addiction
Genetic predisposition to spontaneous preterm birth : approaches to identify susceptibility genes
Abstract.
Epidemiology of Psychotic Disorders
Scientology : abuse at the top
Cognitive function in opioid substitution treated patients : associations with drug treatment variables
SUMO-1 conjugation in normal and stress conditions in vivo
Genome-wide regulation of glucocorticoid signaling by SUMO modifications
Early chronic airway disease in young and middle-aged smokers
Abuse and fatal poisonings involving prescription opioids : revelations from postmortem toxicology
Genetic background of spontaneous preterm birth and lung diseases in preterm infants : studies of potential susceptibility genes and polymorphisms
From memories of the past to anticipations of the future:pre-service elementary teachers’ mathematical identity work
Dental fear among adults in Finland
Social differentials in the outcomes of depression : a longitudinal register study
Greedy institutions : patterns of undivided commitment
Becoming friends of time : disability, timefullness, and gentle discipleship
Pocketbook on the enlargement countries
Buprenorphine : features of abuse and methods for improving unobserved dosing in opioid substitution treatment
Alcohol and cancer among men : public health impact and perspectives
Glycobiological insights in characterization and targeting of umbilical cord blood derived stem cells
Epidemiology of psychotic disorders
Croatia's EU accession : socio-economic assessment of farm households and policy recommendations
Alcohol affects the outcome after head trauma
From cold war to common currency : a personal perspective on Finland and the EU
Key figures on the enlargement countries
Improving maintenance treatment of opiate addiction : clinical aspects
The Instrument for Structural Policy for Pre-Accession (ISPA) : annual report
