http://www.yso.fi/onto/yso/p27556 ubiquitins
ubiquitins
Genetic and functional studies of genes involved in the pathogenesis of Alzheimer's disease
Genome-wide regulation of glucocorticoid signaling by SUMO modifications
SUMO-1 conjugation in normal and stress conditions in vivo
Regulation of ErbB4 signaling by post-translational modifications
Ubiquitin family modifiers and the proteasome : reviews and protocols
