http://www.yso.fi/onto/yso/p2788 transcription (biological events)
transcription (biological events)
Differential functions of mammalian Cdk7 and CCRK kinases in regulating transcription and ciliogenesis
Regulation and function of GATA transcription factors in adrenocortical tumors and granulosa cells
Regulation of androgen receptor signaling by SUMO modifications in prostate cancer cells
Transcription factors Foxi3 and Sox2 in the regulation of tooth development
Androgen receptor-mediated gene activation in prostate cancer cells
Novel molecular mechanisms of Arabidopsis disease resistance
Behind the text : reconstructing the voice of a singer
Neuronal K-Cl cotransporter : transcriptional mechanisms of KCC2 gene regulation
The nuclear import mechanism of SRF co-activator MKL1
Thiamine-related regulation of metabolism and gene expression in the yeast Saccharomyces cerevisiae
Impact of environmental factors on chemical bioavailability and toxicity to aquatic invertebrates : consequences on transcriptional and metabolic regulations
Expression of SOX9 during murine Kras-driven lung tumorigenesis
Roles of DNA polymerase epsilon and TopBP1 in DNA replication and damage response
System-level characterization of Th2 cell development and immune cell response to ZnO and TiO2 nanoparticles
Genetic regulatory in avian B cells
SUMOylation in the regulation of androgen receptor and pioneer factor FOXA1 in prostate cancer cells
Functional analysis of MrpL55, and Mat1 acting at the crossroad of cell cycle, transcription and metabolism regulation
Happiness is ... a good transcription : Shortcomings in sheet music publications of 'Happiness Is A Warm Gun'
Chromatoid body mediated RNA regulation in mouse male germline
Structure-aided design of antiviral drugs : application of the method on HIV-1 protease and SIV reverse transcriptase
Regulation of transcription in plants
Transcription factor Nrf2 mediated gene regulation and signaling in the endothelium
Autoimmune regulator protein interaction with DNA-dependent protein kinase and its role in apoptosis
Regulation and Function of GATA Transcription Factors in Adrenocortical Tumors and Granulosa Cells
DNA polymerase Epsilon and TopBP1 : unexpected links between DNA replication, stress response, and RNA metabolism
Transcriptional Regulation of GABAergic neuron differentiation in the developing diencephalon, midbrain and anterior hindbrain
Evaluation of the mechanisms of gene regulation on the chromatin level at the example of human hyaluronan synthase 2 and cyclin C genes
The molecular basis of hydrolethalus syndrome
Sox2-positive stem and progenitor cells in tooth renewal and odontogenic tumors
An integrated view of PPAR-dependent transcription
Role of WRKY transcription factors in Arabidopsis development and stress responses
SUMOylation in the Regulation of Androgen Receptor and Pioneer Factor FOXA1 in Prostate Cancer Cells
Transcriptional regulation
Regulation of murine hepatic Cytochrome P450 2a5 expression by transcription factor Nuclear factor (erythroid-derived 2)-like 2
Transcription factors ΔFosB and CREB in drug addiction : studies in models of alcohol preference and chronic nicotine exposure
System-wide approaches to uncover Th2 cell lineage commitment
Reliability and validity in research based on tapes and transcripts
SUMOs in the regulation of transcriptional Co-regulators RIP140 and PGC-1α and in the development of C. elegans
Effects of UVB-exposure, extracellular nucleotides and betaine on keratinocyte biology and hyaluronan metabolism
Systems and mechanistic understanding of genetic predisposition to prostate cancer
Negative regulation of Drosophila immune response
Studies on retina-specific gene expression
Eukaryotic transcription factors
DNA polymerase Epsilon and TopBP1 : unexpected links between DNA replication, stress response and RNA metabolism
SUMOs in the regulation of transcriptional co-regulators RIP140 and PGC-1α and in the development of C. elegans
Nuclear import mechanisms of STAT and NF-κB transcription factors
Genome-wide regulation of glucocorticoid signaling by SUMO modifications
Transcription associated recombination in mammalian cells
Genomic approach to organ-specific growth control
Epigenetherapy : small RNAs regulating vascular endothelial growth factor A
The regulation of inflammatory cytokines by vitamin D
